
     RDKit          3D

 18 19  0  0  0  0  0  0  0  0999 V2000
   11.6886    9.2577   -4.3266 C   0  0  0  0  0  0  0  0  0  0  0  0
   11.3445    8.0878   -5.0343 C   0  0  0  0  0  0  0  0  0  0  0  0
   11.4162    6.8709   -4.3648 C   0  0  0  0  0  0  0  0  0  0  0  0
   11.8139    6.8659   -3.0620 N   0  0  0  0  0  0  0  0  0  0  0  0
   12.1406    8.0122   -2.4032 C   0  0  0  0  0  0  0  0  0  0  0  0
   12.0762    9.1935   -3.0361 N   0  0  0  0  0  0  0  0  0  0  0  0
   10.9681    8.2544   -6.3250 O   0  0  0  0  0  0  0  0  0  0  0  0
   10.1026    9.1892   -6.8895 C   0  0  2  0  0  0  0  0  0  0  0  0
    9.0258    8.5415   -7.4144 O   0  0  0  0  0  0  0  0  0  0  0  0
    9.0694    8.1485   -8.6990 C   0  0  2  0  0  0  0  0  0  0  0  0
    8.4585    6.7444   -8.7950 C   0  0  0  0  0  0  0  0  0  0  0  0
    8.4702    6.2744  -10.0941 O   0  0  0  0  0  0  0  0  0  0  0  0
   10.3983    8.2108   -9.3740 C   0  0  1  0  0  0  0  0  0  0  0  0
   10.2443    7.9475  -10.7340 O   0  0  0  0  0  0  0  0  0  0  0  0
   10.8787    9.6341   -9.2474 C   0  0  2  0  0  0  0  0  0  0  0  0
   12.1065    9.7477   -9.8669 O   0  0  0  0  0  0  0  0  0  0  0  0
   10.8804   10.0612   -7.8168 C   0  0  2  0  0  0  0  0  0  0  0  0
   12.2295   10.0953   -7.4073 O   0  0  0  0  0  0  0  0  0  0  0  0
  1  6  2  0
  2  3  2  0
  2  1  1  0
  3  4  1  0
  4  5  2  0
  6  5  1  0
  8  7  1  6
  8  9  1  0
  9 10  1  0
 10 11  1  1
 11 12  1  0
 10 13  1  0
 13 14  1  6
 13 15  1  0
 15 16  1  1
 15 17  1  0
 17 18  1  1
 17  8  1  0
  2  7  1  0
M  END
>  <Score>  (1) 
-7.12829

$$$$

     RDKit          3D

 14 15  0  0  0  0  0  0  0  0999 V2000
   11.8115    6.9296   -2.9679 C   0  0  0  0  0  0  0  0  0  0  0  0
   11.4355    6.8787   -4.3257 C   0  0  0  0  0  0  0  0  0  0  0  0
   11.3602    8.0917   -5.0294 C   0  0  0  0  0  0  0  0  0  0  0  0
   11.6542    9.2435   -4.3610 N   0  0  0  0  0  0  0  0  0  0  0  0
   12.0118    9.2526   -3.0556 C   0  0  0  0  0  0  0  0  0  0  0  0
   12.0889    8.0998   -2.3664 N   0  0  0  0  0  0  0  0  0  0  0  0
   10.5371    7.4329   -9.1984 C   0  0  0  0  0  0  0  0  0  0  0  0
    9.6823    7.2013   -7.9964 C   0  0  1  0  0  0  0  0  0  0  0  0
   10.4004    6.8891   -6.8552 O   0  0  0  0  0  0  0  0  0  0  0  0
   10.9723    8.0887   -6.4477 C   0  0  1  0  0  0  0  0  0  0  0  0
    9.9742    9.1815   -6.7730 C   0  0  1  0  0  0  0  0  0  0  0  0
   10.5807   10.1473   -7.5709 O   0  0  0  0  0  0  0  0  0  0  0  0
    8.9203    8.4339   -7.5605 C   0  0  2  0  0  0  0  0  0  0  0  0
    7.9485    7.9876   -6.6386 O   0  0  0  0  0  0  0  0  0  0  0  0
  1  6  2  0
  2  1  1  0
  3  4  1  0
  3  2  2  0
  4  5  2  0
  5  6  1  0
  8  7  1  6
  8  9  1  0
  9 10  1  0
 10 11  1  0
 11 12  1  6
 11 13  1  0
 13 14  1  1
 13  8  1  0
 10  3  1  1
M  END
>  <Score>  (2) 
-7.30094

$$$$

     RDKit          3D

 18 19  0  0  0  0  0  0  0  0999 V2000
   11.6874    9.2554   -4.3297 C   0  0  0  0  0  0  0  0  0  0  0  0
   11.3451    8.0933   -5.0342 C   0  0  0  0  0  0  0  0  0  0  0  0
   11.4159    6.8669   -4.3645 C   0  0  0  0  0  0  0  0  0  0  0  0
   11.8144    6.8667   -3.0609 N   0  0  0  0  0  0  0  0  0  0  0  0
   12.1404    8.0131   -2.4043 C   0  0  0  0  0  0  0  0  0  0  0  0
   12.0769    9.1925   -3.0334 N   0  0  0  0  0  0  0  0  0  0  0  0
   10.9638    8.2369   -6.3329 O   0  0  0  0  0  0  0  0  0  0  0  0
   11.7286    8.2195   -7.4842 C   0  0  1  0  0  0  0  0  0  0  0  0
   11.3579    7.2441   -8.4039 O   0  0  0  0  0  0  0  0  0  0  0  0
   12.4270    7.0315   -9.2744 C   0  0  1  0  0  0  0  0  0  0  0  0
   12.1351    5.7512  -10.0011 C   0  0  0  0  0  0  0  0  0  0  0  0
   13.1179    5.3999  -10.9138 O   0  0  0  0  0  0  0  0  0  0  0  0
   12.5256    8.2235  -10.1735 C   0  0  2  0  0  0  0  0  0  0  0  0
   13.6443    8.1382  -11.0212 O   0  0  0  0  0  0  0  0  0  0  0  0
   12.7510    9.4471   -9.3080 C   0  0  2  0  0  0  0  0  0  0  0  0
   13.9575    9.2434   -8.6346 O   0  0  0  0  0  0  0  0  0  0  0  0
   11.6524    9.5444   -8.2559 C   0  0  1  0  0  0  0  0  0  0  0  0
   10.4344    9.5848   -8.9473 O   0  0  0  0  0  0  0  0  0  0  0  0
  1  6  2  0
  2  3  2  0
  2  1  1  0
  3  4  1  0
  4  5  2  0
  6  5  1  0
  8  7  1  1
  8  9  1  0
  9 10  1  0
 10 11  1  6
 11 12  1  0
 10 13  1  0
 13 14  1  6
 13 15  1  0
 15 16  1  1
 15 17  1  0
 17 18  1  6
 17  8  1  0
  2  7  1  0
M  END
>  <Score>  (3) 
-7.48009

$$$$
